data_ASV
#**************************************************************************
#
# CIF taken from the IZA-SC Database of Zeolite Structures
# Ch. Baerlocher and L.B. McCusker
# Database of Zeolite Structures: http://www.iza-structure.org/databases/ 
#
# All data on this site have been placed in the public domain.
# If you use this work in a scientific publication, you are obligated to
# cite its origin.
#
# The atom coordinates and the cell parameters were optimized with DLS76
# assuming a pure SiO2 composition.
#
#**************************************************************************

_cell_length_a                   8.6740(0)
_cell_length_b                   8.6740(0)
_cell_length_c                  13.9190(0)
_cell_angle_alpha               90.0000(0)
_cell_angle_beta                90.0000(0)
_cell_angle_gamma               90.0000(0)

_symmetry_space_group_name_H-M     'P 4/m c c'
_symmetry_Int_Tables_number         124
_symmetry_cell_setting             tetragonal

loop_
_symmetry_equiv_pos_as_xyz
'+x,+y,+z'
'-y,+x,+z'
'-x,-y,+z'
'+y,-x,+z'
'-x,+y,1/2+z'
'+y,+x,1/2+z'
'+x,-y,1/2+z'
'-y,-x,1/2+z'
'-x,-y,-z'
'+y,-x,-z'
'+x,+y,-z'
'-y,+x,-z'
'+x,-y,1/2-z'
'-y,-x,1/2-z'
'-x,+y,1/2-z'
'+y,+x,1/2-z'

loop_
_atom_site_label
_atom_site_type_symbol
_atom_site_fract_x
_atom_site_fract_y
_atom_site_fract_z
    O1    O     0.1089    0.6074    0.3178
    O2    O     0.1985    0.4155    0.0000
    O3    O     0.3938    0.3110    0.1321
    T1    Si    0.2534    0.4308    0.1114
    T2    Si    0.0000    0.5000    0.2500

