data_MVY
#**************************************************************************
#
# CIF taken from the IZA-SC Database of Zeolite Structures
# Ch. Baerlocher and L.B. McCusker
# Database of Zeolite Structures: http://www.iza-structure.org/databases/ 
#
# All data on this site have been placed in the public domain.
# If you use this work in a scientific publication, you are obligated to
# cite its origin.
#
# The atom coordinates and the cell parameters were optimized with DLS76
# assuming a pure SiO2 composition.
#
#**************************************************************************

_cell_length_a                   5.0210(0)
_cell_length_b                   8.1510(0)
_cell_length_c                  13.9770(0)
_cell_angle_alpha               90.0000(0)
_cell_angle_beta                90.0000(0)
_cell_angle_gamma               90.0000(0)

_symmetry_space_group_name_H-M     'P n n m'
_symmetry_Int_Tables_number         58
_symmetry_cell_setting             orthorhombic

loop_
_symmetry_equiv_pos_as_xyz
'+x,+y,+z'
'-x,-y,+z'
'1/2-x,1/2+y,1/2-z'
'1/2+x,1/2-y,1/2-z'
'-x,-y,-z'
'+x,+y,-z'
'1/2+x,1/2-y,1/2+z'
'1/2-x,1/2+y,1/2+z'

loop_
_atom_site_label
_atom_site_type_symbol
_atom_site_fract_x
_atom_site_fract_y
_atom_site_fract_z
    O1    O     0.1370    0.2998    0.2713
    O2    O     0.2777    0.2676    0.0952
    O3    O     0.5000    0.5000    0.1981
    O4    O     0.0000    0.0000    0.5000
    O5    O     0.5000    0.0000    0.5000
    T1    Si    0.3882    0.3151    0.2000
    T3    Si    0.2501    0.8772    0.5000

