data_RSN
#**************************************************************************
#
# CIF taken from the IZA-SC Database of Zeolite Structures
# Ch. Baerlocher and L.B. McCusker
# Database of Zeolite Structures: http://www.iza-structure.org/databases/ 
#
# All data on this site have been placed in the public domain.
# If you use this work in a scientific publication, you are obligated to
# cite its origin.
#
# The atom coordinates and the cell parameters were optimized with DLS76
# assuming a pure SiO2 composition.
#
#**************************************************************************

_cell_length_a                   7.1550(0)
_cell_length_b                  41.8260(0)
_cell_length_c                   7.1580(0)
_cell_angle_alpha               90.0000(0)
_cell_angle_beta                90.0030(0)
_cell_angle_gamma               90.0000(0)

_symmetry_space_group_name_H-M     'C 2/m'
_symmetry_Int_Tables_number         12
_symmetry_cell_setting             monoclinic

loop_
_symmetry_equiv_pos_as_xyz
'+x,+y,+z'
'1/2+x,1/2+y,+z'
'-x,+y,-z'
'1/2-x,1/2+y,-z'
'-x,-y,-z'
'1/2-x,1/2-y,-z'
'+x,-y,+z'
'1/2+x,1/2-y,+z'

loop_
_atom_site_label
_atom_site_type_symbol
_atom_site_fract_x
_atom_site_fract_y
_atom_site_fract_z
    O1    O     0.8164    0.1027    0.0000
    O2    O     0.6834    0.0532    0.1844
    O3    O     0.0000    0.0486    0.0000
    O4    O     0.6833    0.0532    0.8157
    O5    O     0.5000    0.0463    0.5000
    O6    O     0.5001    0.0000    0.2510
    O7    O     0.0000    0.1473    0.1835
    O8    O     0.8156    0.1968    0.3167
    O9    O     0.0000    0.2014    0.0000
   O10    O     0.1843    0.1968    0.3167
   O11    O     0.5000    0.2038    0.5000
   O12    O     0.2500    0.2500    0.5000
    T1    Si    0.7943    0.0643    0.0000
    T2    Si    0.5000    0.0381    0.2804
    T3    Si    0.0000    0.1857    0.2057
    T4    Si    0.2801    0.2119    0.5000
    T5    Si    0.0000    0.1250    0.0000

